/*---------------------------------------------------------------------------*\
  =========                 |
  \\      /  F ield         | OpenFOAM: The Open Source CFD Toolbox
   \\    /   O peration     | Website:  https://openfoam.org
    \\  /    A nd           | Version:  11
     \\/     M anipulation  |
\*---------------------------------------------------------------------------*/
Build  : 11-d5b4d966c3c5
Exec   : blockMesh
Date   : Dec 01 2023
Time   : 16:20:44
Host   : "vlad-TM1701"
PID    : 44337
I/O    : uncollated
Case   : /home/vlad/Documents/polytech/analisys_systems/kursach/kursovaya
nProcs : 1
sigFpe : Enabling floating point exception trapping (FOAM_SIGFPE).
fileModificationChecking : Monitoring run-time modified files using timeStampMaster (fileModificationSkew 10)
allowSystemOperations : Allowing user-supplied system call operations

// * * * * * * * * * * * * * * * * * * * * * * * * * * * * * * * * * * * * * //
Create time

Reading "blockMeshDict"

Creating block mesh from
    "system/blockMeshDict"
Expanding #calc at line 25 in file "/home/vlad/Documents/polytech/analisys_systems/kursach/kursovaya/system/blockMeshDict"
Invoking "wmake -s libso /home/vlad/Documents/polytech/analisys_systems/kursach/kursovaya/dynamicCode/_419943528cfb37c71290618251c8b0766ab994cd"
wmake libso /home/vlad/Documents/polytech/analisys_systems/kursach/kursovaya/dynamicCode/_419943528cfb37c71290618251c8b0766ab994cd
    Ctoo: codeStreamTemplate.C
